324
Generated by LammpsCT
N -32.65318478934275 20.561240826055172 5.490953493807041 
C -31.86791593016864 21.608259233464846 5.536454845865254 
C -32.44978460569455 22.837188068331077 5.531438296317065 
H -34.356112510170625 18.692049013305056 5.347652972973486 
N -33.78752769756914 22.6570078463634 5.343006069571153 
C -33.847943082027506 21.27193338072163 5.420432304348483 
C -35.21310863883627 19.23651702678903 5.597529339452382 
C -35.10195946118596 20.63343631495964 5.558707243377856 
C -36.184167232254126 21.40136261406437 5.945015023719062 
C -34.88103973063152 23.466784767621686 5.411366479909631 
C -36.13526663460061 22.80777192007878 5.853859414043048 
C -31.692690959616765 24.027123371060387 5.782655056291302 
H -32.166441371268725 25.016259870644504 5.849153332472144 
O -34.78365342809244 24.640967419365634 5.137618948826985 
N -40.38583486883676 17.79371247851636 12.214044244836776 
H -39.62549337709936 15.270928998878356 8.88146925424031 
C -39.98273769319474 16.265799857114835 9.128741667823435 
C -40.40455497721178 16.548071207523943 10.399758698287627 
N -38.596025437204744 17.372610151976918 7.435500867072527 
C -39.639953594830985 17.388784363174317 8.356738869715779 
N -40.304254064945276 15.639569185354388 11.37555834023788 
C -40.554510904951556 17.81565168093291 10.819203858648747 
H -36.371622575220925 17.5354110104269 6.282955540047301 
C -38.504717818892296 18.69835449115373 7.1849462787605765 
C -40.13967435023393 18.64977124771377 8.625155258993622 
C -40.50628552909399 18.89177689760603 9.926586380709592 
C -38.403788783310986 22.896171408719265 6.668739213371053 
C -38.36217877811931 21.51675108708692 6.894659326331123 
N -39.42760062805989 19.5331666988846 7.77678536319336 
H -40.609394036057374 19.896567174258802 10.28108697736201 
C -39.45562667352599 20.870601397545588 7.681363366312148 
O -40.479583709172054 21.419846364211974 8.110956942550594 
C -37.37034638594432 19.358995306289064 6.584905460641295 
C -37.34850722694751 20.747912580113532 6.3434258991600885 
H -39.19186372844599 23.503965005877077 7.120606987497564 
C -37.2300791038545 23.567031356135253 6.281836955147452 
C -36.261647061759504 18.63181525467524 6.213076275325257 
H -37.24155296382584 24.650101907512354 6.345806053796957 
H -40.01411662765019 13.424469971700352 15.933392269020374 
N -38.04588898923439 13.49890607272073 17.720094406305712 
C -40.190191144032795 14.795668063733293 14.343969354594222 
C -39.75326760622413 14.386597519032907 15.565282726068906 
C -38.97348162082463 15.265153412519286 16.304749633311594 
C -38.15417579124588 14.82957563878688 17.41053944139839 
C -38.78635617575613 16.564343223066196 15.847730439441891 
C -39.950790615723484 16.059386424703455 13.808954185836871 
C -39.273501551941415 16.96846227088817 14.63016469558671 
H -40.84372479583229 14.113379535693761 13.86262500830002 
C -37.99059096305854 17.476944161054455 16.626597900355396 
C -39.07648231074802 18.261346976497578 14.170135808932427 
C -37.174949485010806 16.959322347527763 17.806141269983666 
N -37.32039915201326 15.691784336462678 18.062559316084226 
C -40.383310228300935 16.45078566482426 12.492571160673442 
C -37.86534597493183 18.78295656384216 16.17789202434625 
C -39.6967296104424 18.675764891049358 12.896653450519478 
C -38.48296298229837 19.219513356669687 15.016138685768771 
H -38.49057085129716 20.240505693215475 14.774572864586831 
H -37.24364190414538 19.52429233511715 16.77664303822169 
O -39.37760742109767 19.79158414096109 12.487765163718159 
H -37.08241819162305 11.516126683560017 19.196885466328418 
C -32.57786317877224 10.350156810721257 24.27911724390804 
H -34.21376130490722 10.260430730957209 22.939084333779878 
C -33.353954458107786 10.80275368378662 23.2474836514997 
N -34.978796268146034 11.778751074049946 20.931993964940528 
C -33.12459137209025 12.000028021441935 22.59481240219042 
C -37.005874635612514 13.534427338742526 18.534104939017126 
H -31.036696348280238 16.022778977415566 22.946694672164334 
C -36.551358081669285 12.464510877864763 19.267733377619596 
C -31.321625487840404 12.420335338101681 24.265180963570504 
O -36.50774574846044 17.636797468706398 18.552606543151267 
C -36.52965137837232 14.78504937049931 18.805977500116157 
C -35.49098154644578 12.67939660694386 20.097362249970345 
C -34.007833577023874 12.4927607392815 21.57158661372613 
C -31.188652466425875 15.025969330405157 23.34669005894903 
C -35.31306622536533 15.006951478924945 19.477086032223646 
C -31.99646831637682 14.138919820927542 22.715528698137824 
C -32.138024249735636 12.866763226202222 23.19230213805991 
H -34.876019682838994 15.943195191305593 19.63646890626596 
C -34.84185169196349 13.907026146667022 20.16772818976734 
N -33.75758957977989 13.759541587587197 21.094610269313904 
C -32.87815423887952 14.645514371278521 21.650063386975116 
O -32.752130249177405 15.747925791625077 21.138945991498247 
C -31.46351437683365 11.08522681953517 24.715886525275035 
H -32.78907002679481 9.412393607601526 24.745248759269906 
N -30.6570841397075 9.368050495208607 26.24579385672733 
C -30.50240659720125 21.482161466886474 5.849896188704114 
H -30.132184305868684 20.415767926352633 6.007208492598446 
C -30.368406484042684 23.85902953904953 6.16166259406915 
C -29.81821691144316 22.581502015974664 6.244774202621337 
N -28.669099747851256 22.55694534875112 6.890937172180041 
C -26.61045969995627 23.53420935755284 8.6710015837791 
H -26.57091402602171 22.550434726675963 8.346781066810184 
H -24.696620358822596 23.39199598418315 9.727833906116665 
C -25.568409524348347 24.030440197427357 9.420211753463514 
C -28.58066805712818 23.814428891970472 7.3214687132950464 
C -27.64352035681136 24.351653991729236 8.193163817980238 
O -30.561852523583052 26.7443931560761 6.814066906486584 
N -29.54010655009267 24.728986049424364 6.902519460208059 
C -25.560195776346546 25.379533084268562 9.778996770367149 
C -27.59932500438842 25.700520729673794 8.475438000947353 
C -29.62319487187958 26.056268873261303 7.172349434019061 
C -26.57709176911737 26.203603206907506 9.269851937912495 
H -27.581566417328922 29.521456947248055 9.340273292422284 
C -28.59478777932779 26.551821457866435 8.04547094055333 
C -28.54355392654118 27.933629089535465 8.339293844874947 
H -29.266017196725652 28.679963738366123 7.9450960568826465 
C -27.48204140051366 28.402949344845933 9.079496196584389 
C -26.504236362218045 27.548372915002755 9.607739416915749 
C -25.313059754830196 28.09639908932733 10.39794458847685 
O -25.142984066939604 29.291040511700857 10.419582626026171 
C -24.583439768907773 25.815957595504557 10.711260929474047 
N -24.558703389733278 27.18677917404347 11.046051712737324 
H -22.698879126884734 29.335516123280257 11.910558554149922 
C -22.471213560670503 28.261057605690127 12.133432923954748 
C -23.046773005035845 25.88199496466024 11.960126067909371 
N -23.867170592521134 24.977759931192395 11.467016717500723 
C -23.34393041652813 27.21377495846644 11.770175597243972 
H -21.623712860455477 24.545125319342468 12.759776835823308 
C -21.285190909950327 27.815763033696786 12.752408600323184 
N -19.82415268989563 26.226764664793876 13.425506651263994 
N -20.238507945269784 28.512265355439805 13.28490797093566 
C -19.912169615331717 29.84441128485626 13.229778142484431 
C -21.018900804534443 26.514129501655848 12.989996656967948 
C -19.392092513238108 27.507271275106024 13.699986926269844 
C -21.89186897140058 25.512809867644258 12.641881194580261 
C -18.52003191460948 30.272359928381313 13.794781679535172 
O -20.549158124144977 30.605668397927925 12.582047188186962 
N -13.800484545360222 30.288361040813648 15.404602851279323 
C -18.100430407406087 27.87734821950435 14.230663383613742 
H -17.61702657736239 25.90103641761982 14.877093958473951 
C -17.655266167369557 29.25105456190873 14.219194097840067 
C -17.251658772781013 26.919514665510295 14.711740800515942 
C -15.928217004219615 27.290091293862034 15.067212914521555 
C -15.453413282954763 28.62562376088842 14.981429690241084 
H -15.287689559612408 26.47068893918899 15.374431731551043 
C -14.101097274167115 28.977225458538157 15.24122240771637 
C -16.358352098708647 29.587546326323963 14.64227717292301 
N -13.16695687349825 28.020894446500566 15.238002705410164 
C -12.351199043084259 30.175044176950966 15.518938646948572 
C -12.104716944705471 28.8288959127258 15.509556286296347 
H -10.38539503904666 27.35291365747822 15.75014235412404 
C -10.812019723130883 28.393985699048017 15.686383435064107 
C -9.873807938615819 29.432156614847102 15.786670016806138 
N -8.577654672248368 29.181057317831296 15.91093114552906 
C -8.110744329292542 30.409862179213295 16.245400330163122 
N -1.7886940302006467 30.399589214520496 17.326711192262433 
H -6.01585819629869 28.927007662561618 15.479049720624896 
C -5.747972847968678 29.89346396510346 16.020109905355845 
H -3.6587847600475794 29.30422986962416 15.952653251661694 
C -4.384703712268489 30.13657624996735 16.183362247665347 
C -30.36599775619265 14.647652385970735 24.414207970008892 
H -29.73667570479966 7.473768623189744 28.20415612383132 
C -29.293978941604 8.426741146815367 28.115876101762176 
C -28.27194533037315 8.67629533895455 29.053438155553422 
H -27.98803726667402 7.910966119794205 29.716285815574718 
C -27.596755273674567 9.905523139175587 29.022819052954127 
H -26.86274100348079 10.135978385663162 29.787199520329956 
C -29.045645875037838 10.635436068092533 27.18898052824548 
C -27.92171096363122 10.853598627638489 28.028763959309586 
H -27.364074513659784 11.768916852403565 28.01363310845935 
C -29.690451544643476 9.421966962205378 27.22405377059447 
N -29.67121820328718 11.464266360767088 26.239196508283346 
C -30.49289880429646 10.568129836166415 25.666153048151976 
O -28.698498064271288 13.474904386843171 26.514480378588555 
C -29.48847457081157 12.746443629693838 25.91496725837863 
C -30.381038672987874 13.3047950487357 24.802673896834992 
H -29.71469854363764 15.401437654919174 24.873719612588584 
H -18.690683848405165 32.42329599198717 13.408061149058524 
C -18.027230958050477 31.59532671369523 13.78025739852365 
C -16.820655129303695 31.99036191155402 14.300139075315071 
H -16.551305168554215 33.05731137919091 14.325346841095374 
O -14.367566332726868 32.48812616549049 15.45365666500229 
C -14.645380364738536 31.314001096179947 15.222443687697885 
C -15.976202209808552 30.946301710916874 14.649180256528894 
C -8.708248892495623 32.78208688251636 16.636902963545655 
O -9.579666232785215 33.66033381517502 16.65453141273068 
H -11.921205727943004 32.24996865294501 16.033284087771108 
C -7.269896930697699 33.060496495528284 16.984266521872776 
C -6.819343099881759 34.291127293379546 17.459594161493317 
H -7.574158508367615 35.06338896710711 17.60815682503321 
N -8.94134125072151 31.42110065521253 16.32816846149484 
C -11.515394628363195 31.222010245438693 15.861666474922155 
C -6.281170879622209 32.03605325551084 16.830055711413753 
C -10.153328332129652 30.74617198914261 15.981088424352832 
C -6.728179327391603 30.799866617198923 16.318238250882544 
N -2.3001344828735806 32.699460820766085 17.63189938223182 
C -4.9325333726374545 32.311708105245955 17.044030087804362 
C -4.605717775423693 33.53656207638338 17.575130773580486 
C -3.175604263472602 33.70698789847657 17.979177020270537 
C -5.469922396376817 34.57778246541571 17.774937853112327 
C -0.989045114820266 32.45031159321758 18.020870775361672 
H -5.006054079670892 35.52492749804248 18.114086302755222 
C -2.683890584640465 31.39853737849127 17.231407324872038 
C -0.7326173669102017 31.098841676661916 17.778681917821405 
C -4.015216319232119 31.290765812581693 16.781732371956338 
O -2.8197312368690066 34.66285293772414 18.67775807933062 
H -0.2711557417910901 34.36463280013171 18.652293892408647 
C -0.006218684573538647 33.284269217318176 18.5716297898339 
C 0.46953032015720014 30.568404605401927 18.120844927274838 
H 0.6440788940367146 29.59762831344146 17.801910340230545 
H 5.235503016520369 30.349744788368355 19.87880725644815 
C 5.391993781617195 31.366070543911015 20.226324674623026 
C 1.4345390568465324 31.360720673222527 18.731902554246837 
C 1.1403985921662578 32.686364007542274 18.93115273902729 
C 4.445650943903064 32.43716399647224 20.195902358471564 
N 2.250446447921649 33.222055912060746 19.632583266130563 
C 2.5461167546303147 34.45775584377038 20.01440228217816 
C 3.948904029280961 34.742050884715546 20.55341240031592 
O 1.6952347895537756 35.32594206998584 20.000116599801604 
C 4.860203290199897 33.67147124419161 20.694832480244692 
C 3.1512811310915985 32.198484062495226 19.611311185589937 
C 4.28738495088263 35.91952713100994 21.10712803116735 
C 5.5571980523758455 36.21765413265432 21.626392221958046 
H 3.528161797335814 36.749969153530415 21.103803076580984 
C 6.087805307461001 33.86457202627052 21.317887742842657 
N 2.615563727853129 30.987707858005145 19.191742212059165 
C 11.874596532742705 34.319693380426024 24.056196212381014 
C 6.494416785976611 35.15189039693744 21.715029371670813 
C 10.0579863533374 32.66273105279997 22.8859993814349 
C 9.813415538194143 34.045075907972056 22.967991832925225 
C 6.903976928167146 32.76012371171398 21.461861514863735 
C 8.221165552166928 32.96036472759369 21.995895765414573 
N 8.646388248272107 34.267719232077766 22.3384767322635 
C 7.850987609349954 35.37967161894395 22.21291473642006 
N 9.08155096162979 31.961533315496844 22.29566204332211 
C 11.243462190889161 32.118917887938125 23.371033478458212 
C 10.702059167381364 34.92627266617112 23.61223338545385 
H 10.442651569581594 35.9070126027179 23.930026708117108 
O 8.354989231438177 36.456201434824685 22.541756854904552 
C 6.633351185004417 31.55820538629949 20.840778625618672 
H 11.396156844533747 31.0711855114882 23.376700678844976 
C 12.220188910740758 32.98483172853662 23.87790914154919 
H 7.375175793401005 30.764904899891285 20.8338576296438 
N 13.286388524360126 32.534109104613734 24.509165014386465 
H 5.726068817944042 37.10634833215121 22.250801400069697 
O 12.928033266628388 37.166770359160424 24.466901889784566 
C 15.07088222373082 33.88506873075044 25.569219023169826 
C 15.553036137029718 35.136901554020305 25.94673067022187 
C 15.816175710477863 32.77848602307402 25.918662508759695 
C 16.81283770910005 35.24790102382116 26.618811541648817 
C 17.00204866019361 32.90260679526385 26.641556969804803 
C 13.8067842452161 33.73392865865266 24.91256969447865 
H 15.561168267552356 31.832037122271007 25.486197624547966 
C 17.510217336057718 34.12031029554053 27.073422457588453 
H 17.566703274102796 32.00941994884147 26.88829564227764 
C 14.844368101647127 36.32625927752052 25.56941513209324 
C 17.413385567491513 36.539719867635775 26.725316821052445 
C 13.486585933988408 36.172853773828756 24.8675067883271 
N 13.041403231401187 34.89876053028577 24.710993674852062 
C 18.732081912291495 34.39138578077624 27.749858698999628 
N 19.400184582736987 35.581021026309145 27.619844596998284 
N 19.339587307704985 33.426884417143235 28.467513742441234 
C 20.573429397215232 33.99528079431952 28.539039798677734 
C 20.6404390635903 35.310118069766965 28.205544188969743 
C 21.583354301263117 33.41465676375263 29.245390391940713 
C 22.84497208670211 35.47771917733076 28.802223144677757 
C 21.735402926631092 36.15842497864623 28.277295197503232 
C 22.716458737791292 34.21195396432218 29.387835070132883 
H 21.47600585209855 32.39767305248507 29.648012002690862 
N 23.831443046014712 33.81574617332028 30.04677528782668 
C 18.79605727356819 36.73041587505637 27.27694307763328 
N 24.121162539593097 35.91671965659526 28.98872932830579 
C 24.615080016294293 34.90088746010442 29.84921032336288 
C 26.803447788646398 35.983934891007856 29.851084493601302 
C 28.13785272449311 35.975249318645716 30.16416520956073 
C 25.953662457029676 35.02100140253442 30.3562848361835 
C 15.476047450800547 37.606540372262515 25.705061612268246 
C 16.799263300990596 37.64202330450499 26.203573164819662 
H 17.384302345828328 38.53887538891948 26.148754264213192 
H 14.923489916326279 38.44211938014688 25.265284049088184 
H 21.77452949091593 37.164741249864925 27.950254389837085 
O 19.305864802470495 37.83535357704825 27.302711145614925 
O 24.253960057010136 37.83835974228061 28.000532781245408 
C 24.841955208822668 36.96619903824133 28.614391677745093 
C 26.292000643816817 36.97459005577973 28.995298838331948 
C 30.421613175355777 37.04697570904636 30.09208804210943 
C 28.969376909843156 36.99133460049121 29.680053001380557 
C 27.169500850541116 37.96536347282206 28.4588087251597 
C 28.506779003253705 37.99160808189573 28.814638565800344 
H 29.145325869164903 38.84652996429948 28.498208784188662 
H 26.74475333261926 38.679697532492675 27.86121422265335 
C 28.703981139414402 34.92769463778555 30.96014057759494 
C 26.533530856077483 33.94005220890553 31.04527955500889 
C 30.092959595560604 35.01548906026708 31.362513459359384 
H 25.89895540569427 33.13850644333983 31.35472604297084 
H 28.36742974897567 33.173242910316745 31.961812922597552 
C 27.880875309169458 33.98713121375773 31.440631540746224 
O 31.16744300287723 38.001820254039956 29.763730735298665 
O 35.94285858251555 37.57887617684572 30.324190209111183 
H 33.53242766774689 37.125478569548996 30.46814041795951 
H 38.41187280607218 38.172877375163445 29.84998969247507 
H 40.91024188597037 38.13302963396057 30.164553069660514 
C 38.829994334031525 37.476866571398794 30.51210176738111 
C 40.21123916689956 37.399022054695926 30.603813327218074 
N 30.874077091084846 36.095432549029084 30.896856631742732 
C 33.35356038939073 36.190814594260345 31.065091292661407 
C 36.48142935660633 36.716544017029975 30.98518416948327 
C 32.133397721917824 35.664328672441115 31.275248376584145 
C 34.41038346142303 35.49598012414057 31.61948272473964 
C 31.914915731906763 34.51389994253402 31.962514695074933 
C 34.26497836596051 34.286728770291354 32.21467652803937 
C 32.97973483415839 33.73813874273322 32.40627880790035 
H 32.725614621337236 32.868468946402196 32.92708111091046 
N 35.35535094148621 33.690909721617565 32.679557599300374 
N 35.75978817153856 35.70197935409219 31.55773238767596 
C 36.292462460189455 34.64010881856942 32.36204768606797 
N 30.709624279009354 34.02775360391296 32.015102881655274 
H 40.11571074928643 32.66660276390791 33.7762376467412 
C 38.52009738125916 35.55228445527046 31.97640681072776 
C 37.73656410202828 34.53778716621929 32.57609714905707 
C 38.332720997603026 33.538014042703765 33.263900602148375 
C 39.67497728485321 33.45511153928333 33.309714737136154 
C 40.46696660526574 34.40325199212296 32.766536660022915 
H 37.672124433404726 32.82989254191503 33.66542231462322 
C 39.94517394904818 35.49421437746535 32.10585950477316 
C 41.91502485337374 34.27960166484398 32.86119841052729 
C 40.754383143470136 36.392041277180944 31.41723438971678 
C 42.24656317740123 36.29938951211648 31.510945623612685 
C 37.96600484724872 36.557672856952216 31.156527264571828 
H 42.46394636855581 33.92818795908587 34.549176557345916 
N 42.66069822413887 33.53426407864741 33.538027448970475 
N 42.7217515370358 35.26789629627155 32.23176240360704 
H 43.70399641689889 35.11975937977639 32.243360171951494 
O 43.02086023926951 37.057655729387236 30.991226448948638 
